---- qbsp / ericw-tools v0.18.1 ----
Input file: SplitQwake.map
Output file: SplitQwake.bsp

---- LoadMapFile ----
          865 faces
          145 brushes
           43 entities
            6 unique texnames
          258 texinfo

Opened WAD: C:/QuakeDev/wads/prototype_1_3.wad
Opened WAD: C:/Users/Dat/Qwoke/QuakeDev/wads/prototype_1_3.wad
Processing hull 0...
---- Brush_LoadEntity ----
          143 brushes
          220 planes
---- CSGFaces ----
          853 brushfaces
         1040 csgfaces
          851 mergedfaces
---- SolidBSP ----
         1431 split nodes
          694 solid leafs
          704 empty leafs
           34 water leafs
            0 detail leafs
            0 detail illusionary leafs
            0 detail fence leafs
            0 illusionary visblocker leafs
         3712 leaffaces
         3544 nodefaces
---- Portalize ----
          738 vis leafs
          738 vis clusters
         1925 vis portals
---- FillOutside ----
          180 outleafs
---- MergeAll ----
          833 mergefaces
---- SolidBSP ----
          635 split nodes
          309 solid leafs
          302 empty leafs
           25 water leafs
            0 detail leafs
            0 detail illusionary leafs
            0 detail fence leafs
            0 illusionary visblocker leafs
         2245 leaffaces
         1956 nodefaces
---- Portalize ----
          327 vis leafs
          327 vis clusters
          908 vis portals
---- Tjunc ----
         1300 world edges
         5965 edge points
         1381 edges added by tjunctions
            0 faces added by tjunctions
---- MakeFaceEdges ----
---- GrowRegions ----
Processing hull 1...
*** WARNING 19: No entities in empty space -- no filling performed (hull 1)
Processing hull 2...
*** WARNING 19: No entities in empty space -- no filling performed (hull 2)
*** WARNING 16: Texture __TB_empty not found
---- WriteBSPFile ----
Wrote SplitQwake.bsp
          524 planes            10480
         2469 vertexes          29628
          647 nodes             15528
          187 texinfo            7480
         1968 faces             39360
         2991 clipnodes         23928
          340 leafs              9520
         2257 marksurfaces       4514
         9232 surfedges         36928
         4617 edges             18468
            6 textures          76388
              lightdata             0
              visdata               0
              entdata            2947

0.183 seconds elapsed
Peak memory usage: 13145242 (12.5M)
