---- qbsp / ericw-tools v0.18.1 ----
Input file: SplitQwake.map
Output file: SplitQwake.bsp

---- LoadMapFile ----
          877 faces
          147 brushes
           41 entities
            6 unique texnames
          268 texinfo

Opened WAD: C:/QuakeDev/wads/prototype_1_3.wad
Opened WAD: C:/Users/Dat/Qwoke/QuakeDev/wads/prototype_1_3.wad
Processing hull 0...
---- Brush_LoadEntity ----
          145 brushes
          224 planes
---- CSGFaces ----
          865 brushfaces
         1141 csgfaces
          976 mergedfaces
---- SolidBSP ----
         1562 split nodes
          748 solid leafs
          759 empty leafs
           56 water leafs
            0 detail leafs
            0 detail illusionary leafs
            0 detail fence leafs
            0 illusionary visblocker leafs
         3984 leaffaces
         3786 nodefaces
---- Portalize ----
          815 vis leafs
          815 vis clusters
         2187 vis portals
---- FillOutside ----
          181 outleafs
---- MergeAll ----
          975 mergefaces
---- SolidBSP ----
          700 split nodes
          325 solid leafs
          337 empty leafs
           39 water leafs
            0 detail leafs
            0 detail illusionary leafs
            0 detail fence leafs
            0 illusionary visblocker leafs
         2465 leaffaces
         2125 nodefaces
---- Portalize ----
          376 vis leafs
          376 vis clusters
         1086 vis portals
---- Tjunc ----
         1372 world edges
         6344 edge points
         1521 edges added by tjunctions
            0 faces added by tjunctions
---- MakeFaceEdges ----
---- GrowRegions ----
Processing hull 1...
*** WARNING 19: No entities in empty space -- no filling performed (hull 1)
Processing hull 2...
*** WARNING 19: No entities in empty space -- no filling performed (hull 2)
*** WARNING 16: Texture __TB_empty not found
---- WriteBSPFile ----
Wrote SplitQwake.bsp
          521 planes            10420
         2618 vertexes          31416
          712 nodes             17088
          201 texinfo            8040
         2137 faces             42740
         2949 clipnodes         23592
          389 leafs             10892
         2477 marksurfaces       4954
        10044 surfedges         40176
         5023 edges             20092
            6 textures          76388
              lightdata             0
              visdata               0
              entdata            2806

0.194 seconds elapsed
Peak memory usage: 13302698 (12.7M)
