---- qbsp / ericw-tools v0.18.1 ----
Input file: SplitQwake.map
Output file: SplitQwake.bsp

---- LoadMapFile ----
          817 faces
          137 brushes
           18 entities
            5 unique texnames
          181 texinfo

Opened WAD: ../wads/prototype_1_3.wad
Processing hull 0...
---- Brush_LoadEntity ----
          137 brushes
          208 planes
---- CSGFaces ----
          817 brushfaces
          970 csgfaces
          795 mergedfaces
---- SolidBSP ----
         1391 split nodes
          666 solid leafs
          702 empty leafs
           24 water leafs
            0 detail leafs
            0 detail illusionary leafs
            0 detail fence leafs
            0 illusionary visblocker leafs
         3656 leaffaces
         3489 nodefaces
---- Portalize ----
          726 vis leafs
          726 vis clusters
         1891 vis portals
---- FillOutside ----
*** WARNING 10: Reached occupant at (-1072 -576 8), no filling performed.
Leak file written to SplitQwake.pts
---- MakeFaceEdges ----
---- GrowRegions ----
Processing hull 1...
*** WARNING 19: No entities in empty space -- no filling performed (hull 1)
Processing hull 2...
*** WARNING 19: No entities in empty space -- no filling performed (hull 2)
*** WARNING 16: Texture __TB_empty not found
---- WriteBSPFile ----
Wrote SplitQwake.bsp
          489 planes             9780
         4225 vertexes          50700
         1391 nodes             33384
          150 texinfo            6000
         3489 faces             69780
         2887 clipnodes         23096
          727 leafs             20356
         3656 marksurfaces       7312
        13928 surfedges         55712
         8699 edges             34796
            5 textures          70904
              lightdata             0
              visdata               0
              entdata             983

0.160 seconds elapsed
Peak memory usage: 15948596 (15.2M)
