---- qbsp / ericw-tools v0.18.1 ----
Input file: SplitQwake.map
Output file: SplitQwake.bsp

---- LoadMapFile ----
          865 faces
          145 brushes
           95 entities
           44 unique texnames
          446 texinfo

Opened WAD: C:/QuakeDev/wads/prototype_1_3.wad
Opened WAD: C:/QuakeDev/wads/hipnotic.wad
Opened WAD: C:/QuakeDev/wads/rogue.wad
Processing hull 0...
---- Brush_LoadEntity ----
          143 brushes
          220 planes
---- CSGFaces ----
          853 brushfaces
         1039 csgfaces
          854 mergedfaces
---- SolidBSP ----
         1431 split nodes
          694 solid leafs
          704 empty leafs
           34 water leafs
            0 detail leafs
            0 detail illusionary leafs
            0 detail fence leafs
            0 illusionary visblocker leafs
         3714 leaffaces
         3547 nodefaces
---- Portalize ----
          738 vis leafs
          738 vis clusters
         1925 vis portals
---- FillOutside ----
          180 outleafs
---- MergeAll ----
          840 mergefaces
---- SolidBSP ----
          627 split nodes
          302 solid leafs
          301 empty leafs
           25 water leafs
            0 detail leafs
            0 detail illusionary leafs
            0 detail fence leafs
            0 illusionary visblocker leafs
         2244 leaffaces
         1958 nodefaces
---- Portalize ----
          326 vis leafs
          326 vis clusters
          911 vis portals
---- Tjunc ----
         1303 world edges
         5988 edge points
         1407 edges added by tjunctions
            0 faces added by tjunctions
---- MakeFaceEdges ----
---- GrowRegions ----
Processing hull 1...
*** WARNING 19: No entities in empty space -- no filling performed (hull 1)
Processing hull 2...
*** WARNING 19: No entities in empty space -- no filling performed (hull 2)
*** WARNING 16: Texture __TB_empty not found
---- WriteBSPFile ----
Wrote SplitQwake.bsp
          524 planes            10480
         2482 vertexes          29784
          639 nodes             15336
          326 texinfo           13040
         1970 faces             39400
         2991 clipnodes         23928
          339 leafs              9492
         2256 marksurfaces       4512
         9266 surfedges         37064
         4634 edges             18536
           44 textures         514620
              lightdata             0
              visdata               0
              entdata            7479

0.186 seconds elapsed
Peak memory usage: 13197180 (12.6M)
