---- qbsp / ericw-tools v0.18.1 ----
Input file: SplitQwake.map
Output file: SplitQwake.bsp

---- LoadMapFile ----
*** WARNING 06: No info_player_deathmatch entities in level
          661 faces
          111 brushes
           11 entities
            5 unique texnames
          179 texinfo

Opened WAD: ../wads/prototype_1_3.wad
Processing hull 0...
---- Brush_LoadEntity ----
          111 brushes
          195 planes
---- CSGFaces ----
          661 brushfaces
          850 csgfaces
          693 mergedfaces
---- SolidBSP ----
         1163 split nodes
          517 solid leafs
          623 empty leafs
           24 water leafs
            0 detail leafs
            0 detail illusionary leafs
            0 detail fence leafs
            0 illusionary visblocker leafs
         3304 leaffaces
         3155 nodefaces
---- Portalize ----
          647 vis leafs
          647 vis clusters
         1743 vis portals
---- FillOutside ----
*** WARNING 10: Reached occupant at (-464 -224 8), no filling performed.
Leak file written to SplitQwake.pts
---- MakeFaceEdges ----
---- GrowRegions ----
Processing hull 1...
*** WARNING 19: No entities in empty space -- no filling performed (hull 1)
Processing hull 2...
*** WARNING 19: No entities in empty space -- no filling performed (hull 2)
*** WARNING 16: Texture __TB_empty not found
---- WriteBSPFile ----
Wrote SplitQwake.bsp
          467 planes             9340
         3866 vertexes          46392
         1163 nodes             27912
          145 texinfo            5800
         3155 faces             63100
         2541 clipnodes         20328
          648 leafs             18144
         3304 marksurfaces       6608
        12589 surfedges         50356
         7841 edges             31364
            5 textures          70904
              lightdata             0
              visdata               0
              entdata             466

0.178 seconds elapsed
Peak memory usage: 14218600 (13.6M)
